
  ACCLDraw04232322182D

 34 37  0  0  0  0  0  0  0  0999 V2000
    2.4153  -13.3464    0.0000 C   0  0  0  0  0  0  0  0  0  0  0  0
    4.4576  -13.3458    0.0000 C   0  0  0  0  0  0  0  0  0  0  0  0
    3.4384  -12.7561    0.0000 C   0  0  0  0  0  0  0  0  0  0  0  0
    4.4576  -14.5273    0.0000 C   0  0  0  0  0  0  0  0  0  0  0  0
    2.4153  -14.5326    0.0000 C   0  0  0  0  0  0  0  0  0  0  0  0
    3.4409  -15.1168    0.0000 C   0  0  0  0  0  0  0  0  0  0  0  0
    5.4808  -12.7551    0.0000 S   0  0  3  0  0  0  0  0  0  0  0  0
    6.5039  -13.3458    0.0000 O   0  0  0  0  0  0  0  0  0  0  0  0
    4.4576  -12.1644    0.0000 O   0  0  0  0  0  0  0  0  0  0  0  0
    5.4808  -11.5736    0.0000 N   0  0  3  0  0  0  0  0  0  0  0  0
    6.5039  -10.9829    0.0000 C   0  0  0  0  0  0  0  0  0  0  0  0
    7.5249   -9.2134    0.0000 C   0  0  0  0  0  0  0  0  0  0  0  0
    6.5043   -9.8014    0.0000 C   0  0  0  0  0  0  0  0  0  0  0  0
    8.5484   -9.8043    0.0000 C   0  0  0  0  0  0  0  0  0  0  0  0
    7.5315  -11.5762    0.0000 C   0  0  0  0  0  0  0  0  0  0  0  0
    8.5506  -10.9799    0.0000 C   0  0  0  0  0  0  0  0  0  0  0  0
    5.4811   -9.2107    0.0000 O   0  0  0  0  0  0  0  0  0  0  0  0
    7.5257   -8.0352    0.0000 C   0  0  0  0  0  0  0  0  0  0  0  0
    8.5492   -7.4439    0.0000 C   0  0  0  0  0  0  0  0  0  0  0  0
    9.5760   -9.2106    0.0000 C   0  0  0  0  0  0  0  0  0  0  0  0
    9.5688   -8.0296    0.0000 C   0  0  0  0  0  0  0  0  0  0  0  0
    9.5738  -11.5706    0.0000 N   0  0  0  0  0  0  0  0  0  0  0  0
   10.5970  -10.9799    0.0000 S   0  0  3  0  0  0  0  0  0  0  0  0
   11.6201  -11.5706    0.0000 O   0  0  0  0  0  0  0  0  0  0  0  0
   10.5970   -9.7984    0.0000 O   0  0  0  0  0  0  0  0  0  0  0  0
   11.6201  -10.3891    0.0000 C   0  0  0  0  0  0  0  0  0  0  0  0
   12.6411   -8.6196    0.0000 C   0  0  0  0  0  0  0  0  0  0  0  0
   11.6205   -9.2076    0.0000 C   0  0  0  0  0  0  0  0  0  0  0  0
   13.6646   -9.2105    0.0000 C   0  0  0  0  0  0  0  0  0  0  0  0
   12.6477  -10.9824    0.0000 C   0  0  0  0  0  0  0  0  0  0  0  0
   13.6669  -10.3861    0.0000 C   0  0  0  0  0  0  0  0  0  0  0  0
   10.5973   -8.6169    0.0000 C   0  0  0  0  0  0  0  0  0  0  0  0
   14.6900  -10.9768    0.0000 C   0  0  0  0  0  0  0  0  0  0  0  0
   14.6878   -8.6198    0.0000 C   0  0  0  0  0  0  0  0  0  0  0  0
  6  4  1  0  0  0  0
  5  6  2  0  0  0  0
  2  3  1  0  0  0  0
  1  5  1  0  0  0  0
  4  2  2  0  0  0  0
  3  1  2  0  0  0  0
  2  7  1  0  0  0  0
  7  8  2  0  0  0  0
  7  9  2  0  0  0  0
  7 10  1  0  0  0  0
 10 11  1  0  0  0  0
 16 14  1  0  0  0  0
 15 16  1  0  0  0  0
 12 13  1  0  0  0  0
 14 12  2  0  0  0  0
 13 11  1  0  0  0  0
 11 15  2  0  0  0  0
 13 17  2  0  0  0  0
 21 19  1  0  0  0  0
 20 21  2  0  0  0  0
 19 18  2  0  0  0  0
 14 20  1  0  0  0  0
 12 18  1  0  0  0  0
 16 22  2  0  0  0  0
 22 23  1  0  0  0  0
 23 24  2  0  0  0  0
 23 25  2  0  0  0  0
 23 26  1  0  0  0  0
 31 29  1  0  0  0  0
 30 31  2  0  0  0  0
 27 28  1  0  0  0  0
 29 27  2  0  0  0  0
 28 26  2  0  0  0  0
 26 30  1  0  0  0  0
 28 32  1  0  0  0  0
 31 33  1  0  0  0  0
 29 34  1  0  0  0  0
M  END
