
  ACCLDraw04232322072D

 31 34  0  0  0  0  0  0  0  0999 V2000
    1.9778   -2.7839    0.0000 C   0  0  0  0  0  0  0  0  0  0  0  0
    4.0201   -2.7833    0.0000 C   0  0  0  0  0  0  0  0  0  0  0  0
    3.0009   -2.1936    0.0000 C   0  0  0  0  0  0  0  0  0  0  0  0
    4.0201   -3.9648    0.0000 C   0  0  0  0  0  0  0  0  0  0  0  0
    1.9778   -3.9701    0.0000 C   0  0  0  0  0  0  0  0  0  0  0  0
    3.0034   -4.5543    0.0000 C   0  0  0  0  0  0  0  0  0  0  0  0
    5.0433   -4.5555    0.0000 N   0  0  3  0  0  0  0  0  0  0  0  0
    5.0433   -5.7370    0.0000 C   0  0  0  0  0  0  0  0  0  0  0  0
    6.0664   -6.3277    0.0000 N   0  0  3  0  0  0  0  0  0  0  0  0
    7.0895   -5.7370    0.0000 C   0  0  0  0  0  0  0  0  0  0  0  0
    7.0895   -4.5555    0.0000 C   0  0  0  0  0  0  0  0  0  0  0  0
    6.0664   -3.9648    0.0000 C   0  0  0  0  0  0  0  0  0  0  0  0
    4.0201   -6.3277    0.0000 S   0  0  0  0  0  0  0  0  0  0  0  0
    6.0664   -2.7833    0.0000 O   0  0  0  0  0  0  0  0  0  0  0  0
    8.1127   -6.3277    0.0000 O   0  0  0  0  0  0  0  0  0  0  0  0
    6.0664   -7.5091    0.0000 C   0  0  0  0  0  0  0  0  0  0  0  0
    7.0884   -9.2781    0.0000 C   0  0  0  0  0  0  0  0  0  0  0  0
    7.0895   -8.1002    0.0000 C   0  0  0  0  0  0  0  0  0  0  0  0
    6.0649   -9.8690    0.0000 C   0  0  0  0  0  0  0  0  0  0  0  0
    5.0388   -8.1024    0.0000 C   0  0  0  0  0  0  0  0  0  0  0  0
    5.0457   -9.2832    0.0000 C   0  0  0  0  0  0  0  0  0  0  0  0
    8.1127   -3.9648    0.0000 C   0  0  0  0  0  0  0  0  0  0  0  0
    9.1359   -4.5555    0.0000 C   0  0  0  0  0  0  0  0  0  0  0  0
   11.1788   -4.5549    0.0000 C   0  0  0  0  0  0  0  0  0  0  0  0
   10.1593   -3.9650    0.0000 C   0  0  0  0  0  0  0  0  0  0  0  0
   11.1788   -5.7367    0.0000 C   0  0  0  0  0  0  0  0  0  0  0  0
    9.1359   -5.7420    0.0000 C   0  0  0  0  0  0  0  0  0  0  0  0
   10.1619   -6.3265    0.0000 C   0  0  0  0  0  0  0  0  0  0  0  0
   12.2020   -6.3275    0.0000 O   0  0  0  0  0  0  0  0  0  0  0  0
   12.2020   -3.9642    0.0000 I   0  0  0  0  0  0  0  0  0  0  0  0
   10.1619   -7.5079    0.0000 I   0  0  0  0  0  0  0  0  0  0  0  0
  6  4  1  0  0  0  0
  5  6  2  0  0  0  0
  2  3  1  0  0  0  0
  1  5  1  0  0  0  0
  4  2  2  0  0  0  0
  3  1  2  0  0  0  0
  4  7  1  0  0  0  0
 11 12  1  0  0  0  0
 10 11  1  0  0  0  0
  9 10  1  0  0  0  0
  8  9  1  0  0  0  0
 12  7  1  0  0  0  0
  7  8  1  0  0  0  0
  8 13  2  0  0  0  0
 12 14  2  0  0  0  0
 10 15  2  0  0  0  0
  9 16  1  0  0  0  0
 21 19  1  0  0  0  0
 20 21  2  0  0  0  0
 17 18  1  0  0  0  0
 19 17  2  0  0  0  0
 18 16  2  0  0  0  0
 16 20  1  0  0  0  0
 11 22  2  0  0  0  0
 22 23  1  0  0  0  0
 28 26  1  0  0  0  0
 27 28  2  0  0  0  0
 24 25  1  0  0  0  0
 26 24  2  0  0  0  0
 25 23  2  0  0  0  0
 23 27  1  0  0  0  0
 26 29  1  0  0  0  0
 24 30  1  0  0  0  0
 28 31  1  0  0  0  0
M  END
